mol0


 20 22  0  0  0  0  0  0  0  0999 V2000
   38.2860  -29.3780  -31.8626 O   0  0  0  0  0  0  0  0  0  0  0  0
   38.8850  -29.6244  -30.7815 C   0  0  0  0  0  0  0  0  0  0  0  0
   38.4281  -29.0948  -29.6518 O   0  0  0  0  0  0  0  0  0  0  0  0
   39.0113  -29.3072  -28.4740 C   0  0  0  0  0  0  0  0  0  0  0  0
   40.1119  -30.1037  -28.3983 N   0  0  0  0  0  0  0  0  0  0  0  0
   40.6310  -30.6765  -29.5125 C   0  0  0  0  0  0  0  0  0  0  0  0
   41.7656  -31.4912  -29.4251 C   0  0  0  0  0  0  0  0  0  0  0  0
   42.2945  -32.0778  -30.5793 C   0  0  0  0  0  0  0  0  0  0  0  0
   41.6923  -31.8526  -31.8216 C   0  0  0  0  0  0  0  0  0  0  0  0
   40.5574  -31.0400  -31.9170 C   0  0  0  0  0  0  0  0  0  0  0  0
   40.0210  -30.4476  -30.7601 C   0  0  0  0  0  0  0  0  0  0  0  0
   38.4485  -28.7026  -27.2445 C   0  0  0  0  0  0  0  0  0  0  0  0
   37.3236  -29.3045  -26.6493 C   0  0  0  0  0  0  0  0  0  0  0  0
   36.6982  -28.7155  -25.5494 C   0  0  0  0  0  0  0  0  0  0  0  0
   37.1828  -27.5174  -25.0285 C   0  0  0  0  0  0  0  0  0  0  0  0
   38.3073  -26.9138  -25.5927 C   0  0  0  0  0  0  0  0  0  0  0  0
   38.9645  -27.5018  -26.6872 C   0  0  0  0  0  0  0  0  0  0  0  0
   40.1733  -26.8972  -27.1754 N   0  0  0  0  0  0  0  0  0  0  0  0
   41.2348  -27.0036  -26.5270 O   0  0  0  0  0  0  0  0  0  0  0  0
   40.1197  -26.0013  -28.2182 O   0  0  0  0  0  0  0  0  0  0  0  0
  1  2  2  0  0  0
  2  3  1  0  0  0
  3  4  1  0  0  0
  4 12  1  0  0  0
 12 13  2  0  0  0
 13 14  1  0  0  0
 14 15  2  0  0  0
 15 16  1  0  0  0
 16 17  2  0  0  0
 17 18  1  0  0  0
 18 19  2  0  0  0
 18 20  1  0  0  0
  4  5  2  0  0  0
  5  6  1  0  0  0
  6  7  2  0  0  0
  7  8  1  0  0  0
  8  9  2  0  0  0
  9 10  1  0  0  0
 10 11  2  0  0  0
 11  2  1  0  0  0
 17 12  1  0  0  0
 11  6  1  0  0  0
M  CHG 1  18   1
M  CHG 1  20  -1
M  END
>  <minimizedAffinity>
-6.12407

>  <molecular weight>
260.161

$$$$
mol1


 17 19  0  0  0  0  0  0  0  0999 V2000
   41.3055  -33.5050  -29.5386 O   0  0  0  0  0  0  0  0  0  0  0  0
   41.5068  -32.3460  -29.9927 C   0  0  0  0  0  0  0  0  0  0  0  0
   42.3027  -32.1765  -31.1783 N   0  0  0  0  0  0  0  0  0  0  0  0
   42.1689  -31.1695  -32.0380 N   0  0  0  0  0  0  0  0  0  0  0  0
   42.9979  -31.3035  -33.0719 N   0  0  0  0  0  0  0  0  0  0  0  0
   43.6714  -32.4461  -32.8519 C   0  0  0  0  0  0  0  0  0  0  0  0
   44.6604  -33.0360  -33.6326 C   0  0  0  0  0  0  0  0  0  0  0  0
   45.2207  -34.2414  -33.1668 C   0  0  0  0  0  0  0  0  0  0  0  0
   44.7841  -34.8116  -31.9472 C   0  0  0  0  0  0  0  0  0  0  0  0
   43.7805  -34.1847  -31.1825 C   0  0  0  0  0  0  0  0  0  0  0  0
   43.2431  -32.9963  -31.6821 C   0  0  0  0  0  0  0  0  0  0  0  0
   40.8864  -31.1862  -29.3102 C   0  0  0  0  0  0  0  0  0  0  0  0
   39.5829  -30.7812  -29.6519 C   0  0  0  0  0  0  0  0  0  0  0  0
   38.9865  -29.6948  -29.0044 C   0  0  0  0  0  0  0  0  0  0  0  0
   39.6790  -29.0089  -28.0042 C   0  0  0  0  0  0  0  0  0  0  0  0
   40.9674  -29.4116  -27.6456 C   0  0  0  0  0  0  0  0  0  0  0  0
   41.5688  -30.4969  -28.2906 C   0  0  0  0  0  0  0  0  0  0  0  0
  1  2  2  0  0  0
  2 12  1  0  0  0
 12 13  2  0  0  0
 13 14  1  0  0  0
 14 15  2  0  0  0
 15 16  1  0  0  0
 16 17  2  0  0  0
  2  3  1  0  0  0
  3  4  1  0  0  0
  4  5  2  0  0  0
  5  6  1  0  0  0
  6  7  2  0  0  0
  7  8  1  0  0  0
  8  9  2  0  0  0
  9 10  1  0  0  0
 10 11  2  0  0  0
 17 12  1  0  0  0
 11  3  1  0  0  0
 11  6  1  0  0  0
M  END
>  <minimizedAffinity>
-5.84131

>  <molecular weight>
214.159

$$$$
mol2


 26 28  0  0  0  0  0  0  0  0999 V2000
   38.9547  -29.4468  -31.2099 C   0  0  0  0  0  0  0  0  0  0  0  0
   39.4685  -30.6540  -31.6786 C   0  0  0  0  0  0  0  0  0  0  0  0
   39.2593  -31.2351  -33.0487 C   0  0  0  0  0  0  0  0  0  0  0  0
   40.1254  -31.2641  -30.6623 N   0  0  0  0  0  0  0  0  0  0  0  0
   40.8396  -32.5107  -30.6722 C   0  0  0  0  0  0  0  0  0  0  0  0
   40.6700  -33.3306  -29.7296 O   0  0  0  0  0  0  0  0  0  0  0  0
   39.9765  -30.4435  -29.6028 C   0  0  0  0  0  0  0  0  0  0  0  0
   40.4899  -30.6664  -28.4721 O   0  0  0  0  0  0  0  0  0  0  0  0
   39.2655  -29.3343  -29.8953 N   0  0  0  0  0  0  0  0  0  0  0  0
   39.0265  -28.2198  -29.0210 C   0  0  0  0  0  0  0  0  0  0  0  0
   39.3501  -27.0589  -29.3886 O   0  0  0  0  0  0  0  0  0  0  0  0
   41.8111  -32.8191  -31.7345 C   0  0  0  0  0  0  0  0  0  0  0  0
   42.8540  -32.0083  -32.1382 C   0  0  0  0  0  0  0  0  0  0  0  0
   43.4845  -32.6928  -33.1546 C   0  0  0  0  0  0  0  0  0  0  0  0
   42.7873  -33.8737  -33.3109 C   0  0  0  0  0  0  0  0  0  0  0  0
   41.7953  -33.9186  -32.4522 O   0  0  0  0  0  0  0  0  0  0  0  0
   38.4159  -28.4086  -27.6959 C   0  0  0  0  0  0  0  0  0  0  0  0
   38.7060  -27.6929  -26.5495 C   0  0  0  0  0  0  0  0  0  0  0  0
   37.9062  -28.2298  -25.5642 C   0  0  0  0  0  0  0  0  0  0  0  0
   37.1824  -29.2393  -26.1658 C   0  0  0  0  0  0  0  0  0  0  0  0
   37.5097  -29.3227  -27.4349 O   0  0  0  0  0  0  0  0  0  0  0  0
   38.1657  -28.4673  -31.9881 C   0  0  0  0  0  0  0  0  0  0  0  0
   38.7522  -27.6207  -32.7155 O   0  0  0  0  0  0  0  0  0  0  0  0
   36.7684  -28.4741  -31.9027 O   0  0  0  0  0  0  0  0  0  0  0  0
   35.3499  -28.2919  -29.9387 C   0  0  0  0  0  0  0  0  0  0  0  0
   36.0234  -27.5634  -31.0968 C   0  0  0  0  0  0  0  0  0  0  0  0
 25 26  1  0  0  0
 26 24  1  0  0  0
 24 22  1  0  0  0
 22 23  2  0  0  0
 22  1  1  0  0  0
  1  2  2  0  0  0
  2  3  1  0  0  0
  2  4  1  0  0  0
  4  5  1  0  0  0
  5  6  2  0  0  0
  5 12  1  0  0  0
 12 13  2  0  0  0
 13 14  1  0  0  0
 14 15  2  0  0  0
 15 16  1  0  0  0
  4  7  1  0  0  0
  7  8  2  0  0  0
  7  9  1  0  0  0
  9 10  1  0  0  0
 10 11  2  0  0  0
 10 17  1  0  0  0
 17 18  2  0  0  0
 18 19  1  0  0  0
 19 20  2  0  0  0
 20 21  1  0  0  0
  9  1  1  0  0  0
 21 17  1  0  0  0
 16 12  1  0  0  0
M  END
>  <minimizedAffinity>
-6.05744

>  <molecular weight>
344.191

$$$$
mol3


 24 25  0  0  0  0  0  0  0  0999 V2000
   39.4237  -30.8163  -31.8604 C   0  0  0  0  0  0  0  0  0  0  0  0
   39.1698  -30.0888  -30.6944 C   0  0  0  0  0  0  0  0  0  0  0  0
   39.7714  -30.4272  -29.4777 C   0  0  0  0  0  0  0  0  0  0  0  0
   40.6440  -31.5194  -29.4328 C   0  0  0  0  0  0  0  0  0  0  0  0
   40.9240  -32.2764  -30.5868 C   0  0  0  0  0  0  0  0  0  0  0  0
   40.3101  -31.9261  -31.8206 C   0  0  0  0  0  0  0  0  0  0  0  0
   39.1605  -29.3224  -33.8890 C   0  0  0  0  0  0  0  0  0  0  0  0
   38.7580  -30.3761  -33.0209 O   0  0  0  0  0  0  0  0  0  0  0  0
   39.4860  -29.6465  -28.2523 C   0  0  0  0  0  0  0  0  0  0  0  0
   40.3828  -28.9250  -27.7349 O   0  0  0  0  0  0  0  0  0  0  0  0
   38.2193  -29.7093  -27.6609 O   0  0  0  0  0  0  0  0  0  0  0  0
   37.7947  -28.7683  -26.7430 N   0  0  0  0  0  0  0  0  0  0  0  0
   36.7140  -28.8954  -26.0309 C   0  0  0  0  0  0  0  0  0  0  0  0
   36.3299  -27.8047  -25.1144 C   0  0  0  0  0  0  0  0  0  0  0  0
   35.2270  -27.9022  -24.3682 C   0  0  0  0  0  0  0  0  0  0  0  0
   34.3786  -29.1050  -24.4443 C   0  0  0  0  0  0  0  0  0  0  0  0
   33.3471  -29.1842  -23.7252 O   0  0  0  0  0  0  0  0  0  0  0  0
   34.7496  -30.2127  -25.3588 C   0  0  0  0  0  0  0  0  0  0  0  0
   33.9238  -31.4684  -25.3999 C   0  0  0  0  0  0  0  0  0  0  0  0
   35.8720  -30.1175  -26.0908 C   0  0  0  0  0  0  0  0  0  0  0  0
   41.8020  -33.3710  -30.5256 O   0  0  0  0  0  0  0  0  0  0  0  0
   43.2165  -33.2997  -30.6767 C   0  0  0  0  0  0  0  0  0  0  0  0
   40.5444  -32.6372  -33.0131 O   0  0  0  0  0  0  0  0  0  0  0  0
   39.8628  -33.7989  -33.4734 C   0  0  0  0  0  0  0  0  0  0  0  0
  7  8  1  0  0  0
  8  1  1  0  0  0
  1  2  2  0  0  0
  2  3  1  0  0  0
  3  9  1  0  0  0
  9 10  2  0  0  0
  9 11  1  0  0  0
 11 12  1  0  0  0
 12 13  2  0  0  0
 13 14  1  0  0  0
 14 15  2  0  0  0
 15 16  1  0  0  0
 16 17  2  0  0  0
 16 18  1  0  0  0
 18 19  1  0  0  0
 18 20  2  0  0  0
  3  4  2  0  0  0
  4  5  1  0  0  0
  5 21  1  0  0  0
 21 22  1  0  0  0
  5  6  2  0  0  0
  6 23  1  0  0  0
 23 24  1  0  0  0
  6  1  1  0  0  0
 20 13  1  0  0  0
M  END
>  <minimizedAffinity>
-6.54834

>  <molecular weight>
314.185

$$$$
mol4


 21 23  0  0  0  0  0  0  0  0999 V2000
   40.1088  -29.8101  -28.3891 C   0  0  0  0  0  0  0  0  0  0  0  0
   40.9112  -29.3559  -27.5290 O   0  0  0  0  0  0  0  0  0  0  0  0
   38.7742  -29.2800  -28.4648 N   0  0  0  0  0  0  0  0  0  0  0  0
   38.0348  -29.2560  -29.5711 N   0  0  0  0  0  0  0  0  0  0  0  0
   36.8658  -28.6543  -29.3582 N   0  0  0  0  0  0  0  0  0  0  0  0
   36.8797  -28.2803  -28.0669 C   0  0  0  0  0  0  0  0  0  0  0  0
   35.8926  -27.6188  -27.3431 C   0  0  0  0  0  0  0  0  0  0  0  0
   36.1540  -27.3517  -25.9851 C   0  0  0  0  0  0  0  0  0  0  0  0
   37.3773  -27.7527  -25.3973 C   0  0  0  0  0  0  0  0  0  0  0  0
   38.3534  -28.4220  -26.1618 C   0  0  0  0  0  0  0  0  0  0  0  0
   38.0613  -28.6604  -27.5066 C   0  0  0  0  0  0  0  0  0  0  0  0
   41.4374  -32.8408  -31.1405 C   0  0  0  0  0  0  0  0  0  0  0  0
   42.3646  -31.9741  -30.5334 C   0  0  0  0  0  0  0  0  0  0  0  0
   41.9350  -30.9915  -29.6398 C   0  0  0  0  0  0  0  0  0  0  0  0
   40.5738  -30.8593  -29.3271 C   0  0  0  0  0  0  0  0  0  0  0  0
   39.6457  -31.7143  -29.9445 C   0  0  0  0  0  0  0  0  0  0  0  0
   40.0719  -32.7091  -30.8468 C   0  0  0  0  0  0  0  0  0  0  0  0
   43.1856  -34.1499  -32.3629 C   0  0  0  0  0  0  0  0  0  0  0  0
   41.8329  -33.8418  -32.0421 O   0  0  0  0  0  0  0  0  0  0  0  0
   39.1696  -33.5851  -31.4715 O   0  0  0  0  0  0  0  0  0  0  0  0
   38.5508  -33.3445  -32.7312 C   0  0  0  0  0  0  0  0  0  0  0  0
 18 19  1  0  0  0
 19 12  1  0  0  0
 12 13  2  0  0  0
 13 14  1  0  0  0
 14 15  2  0  0  0
 15  1  1  0  0  0
  1  2  2  0  0  0
  1  3  1  0  0  0
  3  4  1  0  0  0
  4  5  2  0  0  0
  5  6  1  0  0  0
  6  7  2  0  0  0
  7  8  1  0  0  0
  8  9  2  0  0  0
  9 10  1  0  0  0
 10 11  2  0  0  0
 15 16  1  0  0  0
 16 17  2  0  0  0
 17 20  1  0  0  0
 20 21  1  0  0  0
 17 12  1  0  0  0
 11  3  1  0  0  0
 11  6  1  0  0  0
M  END
>  <minimizedAffinity>
-6.51228

>  <molecular weight>
270.179

$$$$
mol5


 21 23  0  0  0  0  0  0  0  0999 V2000
   39.4629  -29.4256  -31.1695 C   0  0  0  0  0  0  0  0  0  0  0  0
   39.6478  -30.1996  -30.0226 C   0  0  0  0  0  0  0  0  0  0  0  0
   40.7221  -31.0304  -30.2758 C   0  0  0  0  0  0  0  0  0  0  0  0
   41.2774  -32.0706  -29.5270 C   0  0  0  0  0  0  0  0  0  0  0  0
   42.3526  -32.7825  -30.0825 C   0  0  0  0  0  0  0  0  0  0  0  0
   42.8322  -32.4615  -31.3681 C   0  0  0  0  0  0  0  0  0  0  0  0
   42.2361  -31.4310  -32.1156 C   0  0  0  0  0  0  0  0  0  0  0  0
   41.1695  -30.7256  -31.5400 C   0  0  0  0  0  0  0  0  0  0  0  0
   40.4211  -29.7384  -32.0902 N   0  0  0  0  0  0  0  0  0  0  0  0
   40.5815  -29.1526  -33.4244 C   0  0  0  0  0  0  0  0  0  0  0  0
   38.4731  -27.0441  -30.7796 C   0  0  0  0  0  0  0  0  0  0  0  0
   38.3820  -28.4199  -31.3658 C   0  0  0  0  0  0  0  0  0  0  0  0
   37.3550  -28.7161  -32.0321 O   0  0  0  0  0  0  0  0  0  0  0  0
   38.8543  -30.1634  -28.8707 O   0  0  0  0  0  0  0  0  0  0  0  0
   39.0355  -29.2574  -27.8208 C   0  0  0  0  0  0  0  0  0  0  0  0
   40.0794  -28.5541  -27.7472 O   0  0  0  0  0  0  0  0  0  0  0  0
   37.9747  -29.0827  -26.8254 C   0  0  0  0  0  0  0  0  0  0  0  0
   37.8480  -28.0152  -25.9593 C   0  0  0  0  0  0  0  0  0  0  0  0
   36.7170  -28.2753  -25.2156 C   0  0  0  0  0  0  0  0  0  0  0  0
   36.2258  -29.4816  -25.6732 C   0  0  0  0  0  0  0  0  0  0  0  0
   36.9974  -29.9382  -26.6330 O   0  0  0  0  0  0  0  0  0  0  0  0
 11 12  1  0  0  0
 12 13  2  0  0  0
 12  1  1  0  0  0
  1  2  2  0  0  0
  2 14  1  0  0  0
 14 15  1  0  0  0
 15 16  2  0  0  0
 15 17  1  0  0  0
 17 18  2  0  0  0
 18 19  1  0  0  0
 19 20  2  0  0  0
 20 21  1  0  0  0
  2  3  1  0  0  0
  3  4  2  0  0  0
  4  5  1  0  0  0
  5  6  2  0  0  0
  6  7  1  0  0  0
  7  8  2  0  0  0
  8  9  1  0  0  0
  9 10  1  0  0  0
  9  1  1  0  0  0
 21 17  1  0  0  0
  8  3  1  0  0  0
M  END
>  <minimizedAffinity>
-5.87445

>  <molecular weight>
270.175

$$$$
mol6


 22 24  0  0  0  0  0  0  0  0999 V2000
   38.0067  -28.0246  -25.5672 C   0  0  0  0  0  0  0  0  0  0  0  0
   36.8988  -28.4829  -24.9535 N   0  0  0  0  0  0  0  0  0  0  0  0
   36.4745  -29.4278  -25.8224 C   0  0  0  0  0  0  0  0  0  0  0  0
   37.2718  -29.5441  -26.9027 N   0  0  0  0  0  0  0  0  0  0  0  0
   38.2409  -28.6623  -26.7325 N   0  0  0  0  0  0  0  0  0  0  0  0
   39.2744  -28.4106  -27.6991 C   0  0  0  0  0  0  0  0  0  0  0  0
   39.7203  -27.2398  -27.8421 O   0  0  0  0  0  0  0  0  0  0  0  0
   39.7940  -29.4952  -28.5659 C   0  0  0  0  0  0  0  0  0  0  0  0
   39.0916  -29.8715  -29.7255 C   0  0  0  0  0  0  0  0  0  0  0  0
   39.5805  -30.8879  -30.5519 C   0  0  0  0  0  0  0  0  0  0  0  0
   40.7793  -31.5334  -30.2359 C   0  0  0  0  0  0  0  0  0  0  0  0
   41.3918  -32.8070  -31.2750 Cl  0  0  0  0  0  0  0  0  0  0  0  0
   41.4927  -31.1578  -29.0940 C   0  0  0  0  0  0  0  0  0  0  0  0
   41.0068  -30.1424  -28.2645 C   0  0  0  0  0  0  0  0  0  0  0  0
   35.2736  -30.2430  -25.6170 C   0  0  0  0  0  0  0  0  0  0  0  0
   34.1885  -29.9053  -24.8332 C   0  0  0  0  0  0  0  0  0  0  0  0
   33.3119  -30.9637  -24.9405 C   0  0  0  0  0  0  0  0  0  0  0  0
   33.9154  -31.8781  -25.7805 C   0  0  0  0  0  0  0  0  0  0  0  0
   35.0839  -31.4198  -26.1673 O   0  0  0  0  0  0  0  0  0  0  0  0
   38.8533  -27.0256  -24.9950 N   0  0  0  0  0  0  0  0  0  0  0  0
   39.7754  -26.7811  -25.4154 H   0  0  0  0  0  0  0  0  0  0  0  0
   38.5814  -26.5700  -24.0960 H   0  0  0  0  0  0  0  0  0  0  0  0
 20  1  1  0  0  0
  1  2  2  0  0  0
  2  3  1  0  0  0
  3 15  1  0  0  0
 15 16  2  0  0  0
 16 17  1  0  0  0
 17 18  2  0  0  0
 18 19  1  0  0  0
  3  4  2  0  0  0
  4  5  1  0  0  0
  5  6  1  0  0  0
  6  7  2  0  0  0
  6  8  1  0  0  0
  8  9  2  0  0  0
  9 10  1  0  0  0
 10 11  2  0  0  0
 11 12  1  0  0  0
 11 13  1  0  0  0
 13 14  2  0  0  0
  5  1  1  0  0  0
 14  8  1  0  0  0
 19 15  1  0  0  0
 20 21  1  0  0  0
 20 22  1  0  0  0
M  END
>  <minimizedAffinity>
-6.91638

>  <molecular weight>
281.634

$$$$
mol7


 20 22  0  0  0  0  0  0  0  0999 V2000
   39.5056  -28.6913  -28.9307 C   0  0  0  0  0  0  0  0  0  0  0  0
   39.7676  -27.6053  -29.5152 O   0  0  0  0  0  0  0  0  0  0  0  0
   38.6346  -28.6896  -27.7865 N   0  0  0  0  0  0  0  0  0  0  0  0
   37.8764  -29.7184  -27.4153 N   0  0  0  0  0  0  0  0  0  0  0  0
   37.1303  -29.4114  -26.3556 N   0  0  0  0  0  0  0  0  0  0  0  0
   37.4298  -28.1348  -26.0581 C   0  0  0  0  0  0  0  0  0  0  0  0
   36.9276  -27.3410  -25.0317 C   0  0  0  0  0  0  0  0  0  0  0  0
   37.4204  -26.0255  -24.9297 C   0  0  0  0  0  0  0  0  0  0  0  0
   38.3918  -25.5502  -25.8427 C   0  0  0  0  0  0  0  0  0  0  0  0
   38.8781  -26.3839  -26.8691 C   0  0  0  0  0  0  0  0  0  0  0  0
   38.3584  -27.6782  -26.9434 C   0  0  0  0  0  0  0  0  0  0  0  0
   41.1608  -32.3431  -30.4910 C   0  0  0  0  0  0  0  0  0  0  0  0
   41.7800  -31.6854  -29.4233 C   0  0  0  0  0  0  0  0  0  0  0  0
   41.2439  -30.5030  -28.9085 C   0  0  0  0  0  0  0  0  0  0  0  0
   40.0761  -29.9524  -29.4608 C   0  0  0  0  0  0  0  0  0  0  0  0
   39.4783  -30.5890  -30.5616 C   0  0  0  0  0  0  0  0  0  0  0  0
   40.0114  -31.7755  -31.0802 C   0  0  0  0  0  0  0  0  0  0  0  0
   39.1993  -32.5123  -32.6526 Br  0  0  0  0  0  0  0  0  0  0  0  0
   43.0306  -33.6120  -31.5343 C   0  0  0  0  0  0  0  0  0  0  0  0
   41.7310  -33.5343  -30.9554 O   0  0  0  0  0  0  0  0  0  0  0  0
 19 20  1  0  0  0
 20 12  1  0  0  0
 12 13  2  0  0  0
 13 14  1  0  0  0
 14 15  2  0  0  0
 15  1  1  0  0  0
  1  2  2  0  0  0
  1  3  1  0  0  0
  3  4  1  0  0  0
  4  5  2  0  0  0
  5  6  1  0  0  0
  6  7  2  0  0  0
  7  8  1  0  0  0
  8  9  2  0  0  0
  9 10  1  0  0  0
 10 11  2  0  0  0
 15 16  1  0  0  0
 16 17  2  0  0  0
 17 18  1  0  0  0
 17 12  1  0  0  0
 11  3  1  0  0  0
 11  6  1  0  0  0
M  END
>  <minimizedAffinity>
-6.12387

>  <molecular weight>
322.073

$$$$
mol8


 16 18  0  0  0  0  0  0  0  0999 V2000
   40.5564  -31.9001  -31.7450 C   0  0  0  0  0  0  0  0  0  0  0  0
   41.7207  -32.6629  -31.6092 C   0  0  0  0  0  0  0  0  0  0  0  0
   42.4322  -32.3357  -30.1135 S   0  0  0  0  0  0  0  0  0  0  0  0
   41.2722  -31.2287  -29.6261 C   0  0  0  0  0  0  0  0  0  0  0  0
   41.2215  -30.5135  -28.4321 C   0  0  0  0  0  0  0  0  0  0  0  0
   40.1567  -29.6224  -28.2373 C   0  0  0  0  0  0  0  0  0  0  0  0
   39.1754  -29.4608  -29.2326 C   0  0  0  0  0  0  0  0  0  0  0  0
   39.2469  -30.1924  -30.4301 C   0  0  0  0  0  0  0  0  0  0  0  0
   40.3074  -31.0920  -30.6162 C   0  0  0  0  0  0  0  0  0  0  0  0
   39.7275  -31.1121  -33.8161 O   0  0  0  0  0  0  0  0  0  0  0  0
   39.6709  -32.0020  -32.9255 C   0  0  0  0  0  0  0  0  0  0  0  0
   38.7232  -33.0720  -33.0651 N   0  0  0  0  0  0  0  0  0  0  0  0
   38.7415  -34.2610  -32.4297 C   0  0  0  0  0  0  0  0  0  0  0  0
   37.6817  -35.0141  -32.8853 C   0  0  0  0  0  0  0  0  0  0  0  0
   37.0555  -34.2119  -33.8186 C   0  0  0  0  0  0  0  0  0  0  0  0
   37.7100  -33.0387  -33.9165 N   0  0  0  0  0  0  0  0  0  0  0  0
 10 11  2  0  0  0
 11  1  1  0  0  0
  1  2  2  0  0  0
  2  3  1  0  0  0
  3  4  1  0  0  0
  4  5  2  0  0  0
  5  6  1  0  0  0
  6  7  2  0  0  0
  7  8  1  0  0  0
  8  9  2  0  0  0
 11 12  1  0  0  0
 12 13  1  0  0  0
 13 14  2  0  0  0
 14 15  1  0  0  0
 15 16  2  0  0  0
  9  1  1  0  0  0
 16 12  1  0  0  0
  9  4  1  0  0  0
M  END
>  <minimizedAffinity>
-5.68747

>  <molecular weight>
220.206

$$$$
mol9


 23 25  0  0  0  0  0  0  0  0999 V2000
   39.1032  -29.1518  -27.7879 C   0  0  0  0  0  0  0  0  0  0  0  0
   37.9472  -29.4391  -27.3753 O   0  0  0  0  0  0  0  0  0  0  0  0
   39.7350  -30.0208  -28.7395 N   0  0  0  0  0  0  0  0  0  0  0  0
   39.0824  -30.6310  -29.7117 N   0  0  0  0  0  0  0  0  0  0  0  0
   40.0073  -31.3515  -30.3774 C   0  0  0  0  0  0  0  0  0  0  0  0
   41.2467  -31.2368  -29.8487 N   0  0  0  0  0  0  0  0  0  0  0  0
   41.0289  -30.3941  -28.8210 C   0  0  0  0  0  0  0  0  0  0  0  0
   39.8426  -26.7759  -28.2046 C   0  0  0  0  0  0  0  0  0  0  0  0
   40.4786  -25.6035  -27.7470 C   0  0  0  0  0  0  0  0  0  0  0  0
   41.0066  -25.5416  -26.4562 C   0  0  0  0  0  0  0  0  0  0  0  0
   40.9122  -26.6435  -25.6079 C   0  0  0  0  0  0  0  0  0  0  0  0
   40.2899  -27.8128  -26.0468 C   0  0  0  0  0  0  0  0  0  0  0  0
   39.7467  -27.8918  -27.3421 C   0  0  0  0  0  0  0  0  0  0  0  0
   40.0436  -26.9616  -30.6953 C   0  0  0  0  0  0  0  0  0  0  0  0
   39.2878  -26.8558  -29.4932 O   0  0  0  0  0  0  0  0  0  0  0  0
   39.6940  -32.1818  -31.5443 C   0  0  0  0  0  0  0  0  0  0  0  0
   39.0958  -31.7484  -32.7107 C   0  0  0  0  0  0  0  0  0  0  0  0
   39.0025  -32.8643  -33.5146 C   0  0  0  0  0  0  0  0  0  0  0  0
   39.5480  -33.9055  -32.7905 C   0  0  0  0  0  0  0  0  0  0  0  0
   39.9514  -33.4670  -31.6200 O   0  0  0  0  0  0  0  0  0  0  0  0
   42.0434  -30.0430  -27.8781 N   0  0  0  0  0  0  0  0  0  0  0  0
   41.8177  -29.5334  -26.9969 H   0  0  0  0  0  0  0  0  0  0  0  0
   43.0249  -30.3646  -28.0289 H   0  0  0  0  0  0  0  0  0  0  0  0
 14 15  1  0  0  0
 15  8  1  0  0  0
  8  9  2  0  0  0
  9 10  1  0  0  0
 10 11  2  0  0  0
 11 12  1  0  0  0
 12 13  2  0  0  0
 13  1  1  0  0  0
  1  2  2  0  0  0
  1  3  1  0  0  0
  3  4  1  0  0  0
  4  5  2  0  0  0
  5 16  1  0  0  0
 16 17  2  0  0  0
 17 18  1  0  0  0
 18 19  2  0  0  0
 19 20  1  0  0  0
  5  6  1  0  0  0
  6  7  2  0  0  0
  7 21  1  0  0  0
 13  8  1  0  0  0
  7  3  1  0  0  0
 20 16  1  0  0  0
 21 22  1  0  0  0
 21 23  1  0  0  0
M  END
>  <minimizedAffinity>
-6.77901

>  <molecular weight>
274.191

$$$$
mol10


 21 23  0  0  0  0  0  0  0  0999 V2000
   41.2395  -30.5667  -28.8245 C   0  0  0  0  0  0  0  0  0  0  0  0
   41.6300  -31.4864  -29.7268 N   0  0  0  0  0  0  0  0  0  0  0  0
   40.4707  -31.7553  -30.3724 C   0  0  0  0  0  0  0  0  0  0  0  0
   39.4289  -31.0472  -29.8852 N   0  0  0  0  0  0  0  0  0  0  0  0
   39.9240  -30.2932  -28.9215 N   0  0  0  0  0  0  0  0  0  0  0  0
   39.1325  -29.3982  -28.1302 C   0  0  0  0  0  0  0  0  0  0  0  0
   38.0245  -29.7912  -27.6780 O   0  0  0  0  0  0  0  0  0  0  0  0
   40.3548  -32.7283  -31.4790 C   0  0  0  0  0  0  0  0  0  0  0  0
   39.0956  -33.1332  -31.9507 C   0  0  0  0  0  0  0  0  0  0  0  0
   39.0022  -34.0533  -32.9964 C   0  0  0  0  0  0  0  0  0  0  0  0
   40.1696  -34.5638  -33.5650 C   0  0  0  0  0  0  0  0  0  0  0  0
   41.3830  -34.1652  -33.1007 N   0  0  0  0  0  0  0  0  0  0  0  0
   41.5017  -33.2703  -32.0834 C   0  0  0  0  0  0  0  0  0  0  0  0
   39.5533  -28.0094  -27.8826 C   0  0  0  0  0  0  0  0  0  0  0  0
   39.1603  -26.8919  -28.5951 C   0  0  0  0  0  0  0  0  0  0  0  0
   39.7893  -25.8255  -27.9903 C   0  0  0  0  0  0  0  0  0  0  0  0
   40.5205  -26.3537  -26.9461 C   0  0  0  0  0  0  0  0  0  0  0  0
   40.3572  -27.6561  -26.9059 O   0  0  0  0  0  0  0  0  0  0  0  0
   42.1088  -30.0479  -27.8166 N   0  0  0  0  0  0  0  0  0  0  0  0
   41.7448  -29.4593  -27.0363 H   0  0  0  0  0  0  0  0  0  0  0  0
   43.1192  -30.3097  -27.8166 H   0  0  0  0  0  0  0  0  0  0  0  0
 19  1  1  0  0  0
  1  2  2  0  0  0
  2  3  1  0  0  0
  3  8  1  0  0  0
  8  9  2  0  0  0
  9 10  1  0  0  0
 10 11  2  0  0  0
 11 12  1  0  0  0
 12 13  2  0  0  0
  3  4  2  0  0  0
  4  5  1  0  0  0
  5  6  1  0  0  0
  6  7  2  0  0  0
  6 14  1  0  0  0
 14 15  2  0  0  0
 15 16  1  0  0  0
 16 17  2  0  0  0
 17 18  1  0  0  0
  5  1  1  0  0  0
 18 14  1  0  0  0
 13  8  1  0  0  0
 19 20  1  0  0  0
 19 21  1  0  0  0
M  END
>  <minimizedAffinity>
-6.7421

>  <molecular weight>
248.177

$$$$
mol11


 19 21  0  0  0  0  0  0  0  0999 V2000
   38.9452  -27.8371  -26.7668 C   0  0  0  0  0  0  0  0  0  0  0  0
   39.8647  -28.2847  -27.6439 N   0  0  0  0  0  0  0  0  0  0  0  0
   39.3203  -29.4507  -28.0505 C   0  0  0  0  0  0  0  0  0  0  0  0
   38.1357  -29.7068  -27.4637 N   0  0  0  0  0  0  0  0  0  0  0  0
   37.8990  -28.6856  -26.6600 N   0  0  0  0  0  0  0  0  0  0  0  0
   36.7334  -28.5650  -25.8206 C   0  0  0  0  0  0  0  0  0  0  0  0
   36.7236  -27.7250  -24.8811 O   0  0  0  0  0  0  0  0  0  0  0  0
   39.9534  -30.3405  -29.0281 C   0  0  0  0  0  0  0  0  0  0  0  0
   41.3034  -30.6153  -29.1179 C   0  0  0  0  0  0  0  0  0  0  0  0
   41.4319  -31.4931  -30.1729 C   0  0  0  0  0  0  0  0  0  0  0  0
   40.1561  -31.6982  -30.6590 C   0  0  0  0  0  0  0  0  0  0  0  0
   39.2964  -30.9973  -29.9557 O   0  0  0  0  0  0  0  0  0  0  0  0
   35.5361  -29.4107  -26.0202 C   0  0  0  0  0  0  0  0  0  0  0  0
   35.2661  -30.5928  -25.3361 C   0  0  0  0  0  0  0  0  0  0  0  0
   34.0463  -31.1806  -25.6937 C   0  0  0  0  0  0  0  0  0  0  0  0
   33.3425  -30.4672  -26.6537 C   0  0  0  0  0  0  0  0  0  0  0  0
   34.2406  -29.1049  -27.0541 S   0  0  0  0  0  0  0  0  0  0  0  0
   40.3486  -26.9391  -24.7261 C   0  0  0  0  0  0  0  0  0  0  0  0
   39.1219  -26.2768  -25.8951 S   0  0  0  0  0  0  0  0  0  0  0  0
 18 19  1  0  0  0
 19  1  1  0  0  0
  1  2  2  0  0  0
  2  3  1  0  0  0
  3  8  1  0  0  0
  8  9  2  0  0  0
  9 10  1  0  0  0
 10 11  2  0  0  0
 11 12  1  0  0  0
  3  4  2  0  0  0
  4  5  1  0  0  0
  5  6  1  0  0  0
  6  7  2  0  0  0
  6 13  1  0  0  0
 13 14  2  0  0  0
 14 15  1  0  0  0
 15 16  2  0  0  0
 16 17  1  0  0  0
  5  1  1  0  0  0
 17 13  1  0  0  0
 12  8  1  0  0  0
M  END
>  <minimizedAffinity>
-5.67069

>  <molecular weight>
282.277

$$$$
mol12


 29 32  0  0  0  0  0  0  0  0999 V2000
   33.9942  -29.3829  -23.7734 N   0  0  0  0  0  0  0  0  0  0  0  0
   32.6747  -29.1642  -24.2884 C   0  0  0  0  0  0  0  0  0  0  0  0
   31.8386  -28.5380  -23.5841 O   0  0  0  0  0  0  0  0  0  0  0  0
   34.0830  -29.4104  -22.7331 H   0  0  0  0  0  0  0  0  0  0  0  0
   35.6240  -27.6082  -24.5220 C   0  0  0  0  0  0  0  0  0  0  0  0
   36.7104  -27.5153  -25.4027 C   0  0  0  0  0  0  0  0  0  0  0  0
   37.0479  -28.6704  -26.0054 C   0  0  0  0  0  0  0  0  0  0  0  0
   36.0443  -29.9228  -25.5258 S   0  0  0  0  0  0  0  0  0  0  0  0
   35.1567  -28.9329  -24.4674 C   0  0  0  0  0  0  0  0  0  0  0  0
   38.1828  -28.5647  -26.9346 C   0  0  0  0  0  0  0  0  0  0  0  0
   38.5647  -27.0683  -26.8208 C   0  0  0  0  0  0  0  0  0  0  0  0
   37.5855  -26.3983  -25.8209 C   0  0  0  0  0  0  0  0  0  0  0  0
   35.0902  -26.4764  -23.7382 C   0  0  0  0  0  0  0  0  0  0  0  0
   33.9724  -25.9775  -24.0421 O   0  0  0  0  0  0  0  0  0  0  0  0
   35.2512  -25.4877  -21.4555 C   0  0  0  0  0  0  0  0  0  0  0  0
   35.8300  -25.9519  -22.6735 O   0  0  0  0  0  0  0  0  0  0  0  0
   32.2111  -29.8199  -25.5255 C   0  0  0  0  0  0  0  0  0  0  0  0
   31.8370  -31.1404  -25.7283 C   0  0  0  0  0  0  0  0  0  0  0  0
   31.7325  -32.2413  -24.7253 C   0  0  0  0  0  0  0  0  0  0  0  0
   31.6337  -31.3234  -27.0118 O   0  0  0  0  0  0  0  0  0  0  0  0
   31.8881  -30.2440  -27.6911 N   0  0  0  0  0  0  0  0  0  0  0  0
   32.2550  -29.2924  -26.8102 C   0  0  0  0  0  0  0  0  0  0  0  0
   32.8098  -27.9859  -27.2294 C   0  0  0  0  0  0  0  0  0  0  0  0
   34.0281  -27.9770  -27.9309 C   0  0  0  0  0  0  0  0  0  0  0  0
   34.6090  -26.7720  -28.3329 C   0  0  0  0  0  0  0  0  0  0  0  0
   33.9760  -25.5621  -28.0489 C   0  0  0  0  0  0  0  0  0  0  0  0
   32.7552  -25.5549  -27.3720 C   0  0  0  0  0  0  0  0  0  0  0  0
   32.1624  -26.7570  -26.9642 C   0  0  0  0  0  0  0  0  0  0  0  0
   30.5802  -26.6707  -26.2053 Cl  0  0  0  0  0  0  0  0  0  0  0  0
 15 16  1  0  0  0
 16 13  1  0  0  0
 13 14  2  0  0  0
 13  5  1  0  0  0
  5  6  1  0  0  0
  6  7  2  0  0  0
  7  8  1  0  0  0
  8  9  1  0  0  0
  9  1  1  0  0  0
  1  2  1  0  0  0
  2  3  2  0  0  0
  2 17  1  0  0  0
 17 18  2  0  0  0
 18 19  1  0  0  0
 18 20  1  0  0  0
 20 21  1  0  0  0
 21 22  2  0  0  0
 22 23  1  0  0  0
 23 24  2  0  0  0
 24 25  1  0  0  0
 25 26  2  0  0  0
 26 27  1  0  0  0
 27 28  2  0  0  0
 28 29  1  0  0  0
  7 10  1  0  0  0
 10 11  1  0  0  0
 11 12  1  0  0  0
  9  5  2  0  0  0
 22 17  1  0  0  0
 28 23  1  0  0  0
 12  6  1  0  0  0
  1  4  1  0  0  0
M  END
>  <minimizedAffinity>
-5.35469

>  <molecular weight>
400.751

$$$$
mol13


 23 26  0  0  0  0  0  0  0  0999 V2000
   36.7656  -26.9223  -31.5480 C   0  0  0  0  0  0  0  0  0  0  0  0
   37.6464  -28.1278  -31.6329 C   0  0  0  0  0  0  0  0  0  0  0  0
   37.8322  -28.8117  -32.7377 O   0  0  0  0  0  0  0  0  0  0  0  0
   38.6589  -29.7991  -32.5502 N   0  0  0  0  0  0  0  0  0  0  0  0
   39.0486  -29.7547  -31.2608 C   0  0  0  0  0  0  0  0  0  0  0  0
   38.4056  -28.7014  -30.6256 C   0  0  0  0  0  0  0  0  0  0  0  0
   38.3944  -28.3722  -29.1857 C   0  0  0  0  0  0  0  0  0  0  0  0
   37.5920  -28.9677  -28.4204 O   0  0  0  0  0  0  0  0  0  0  0  0
   39.2623  -27.3538  -28.6626 N   0  0  0  0  0  0  0  0  0  0  0  0
   39.8156  -26.3924  -29.3977 N   0  0  0  0  0  0  0  0  0  0  0  0
   40.5414  -25.5668  -28.6458 N   0  0  0  0  0  0  0  0  0  0  0  0
   40.4318  -26.0296  -27.3884 C   0  0  0  0  0  0  0  0  0  0  0  0
   41.0084  -25.5288  -26.2254 C   0  0  0  0  0  0  0  0  0  0  0  0
   40.7451  -26.2149  -25.0241 C   0  0  0  0  0  0  0  0  0  0  0  0
   39.9274  -27.3700  -25.0217 C   0  0  0  0  0  0  0  0  0  0  0  0
   39.3615  -27.8491  -26.2198 C   0  0  0  0  0  0  0  0  0  0  0  0
   39.6377  -27.1362  -27.3889 C   0  0  0  0  0  0  0  0  0  0  0  0
   39.9364  -30.7632  -30.6570 C   0  0  0  0  0  0  0  0  0  0  0  0
   39.5870  -32.1217  -30.7136 C   0  0  0  0  0  0  0  0  0  0  0  0
   40.4319  -33.0898  -30.1615 C   0  0  0  0  0  0  0  0  0  0  0  0
   41.6369  -32.7091  -29.5644 C   0  0  0  0  0  0  0  0  0  0  0  0
   42.0026  -31.3607  -29.5267 C   0  0  0  0  0  0  0  0  0  0  0  0
   41.1596  -30.3901  -30.0772 C   0  0  0  0  0  0  0  0  0  0  0  0
  1  2  1  0  0  0
  2  3  1  0  0  0
  3  4  1  0  0  0
  4  5  2  0  0  0
  5 18  1  0  0  0
 18 19  2  0  0  0
 19 20  1  0  0  0
 20 21  2  0  0  0
 21 22  1  0  0  0
 22 23  2  0  0  0
  5  6  1  0  0  0
  6  7  1  0  0  0
  7  8  2  0  0  0
  7  9  1  0  0  0
  9 10  1  0  0  0
 10 11  2  0  0  0
 11 12  1  0  0  0
 12 13  2  0  0  0
 13 14  1  0  0  0
 14 15  2  0  0  0
 15 16  1  0  0  0
 16 17  2  0  0  0
  6  2  2  0  0  0
 17  9  1  0  0  0
 23 18  1  0  0  0
 17 12  1  0  0  0
M  END
>  <minimizedAffinity>
-6.43091

>  <molecular weight>
292.207

$$$$
mol14


 22 24  0  0  0  0  0  0  0  0999 V2000
   38.6164  -28.9444  -28.6977 C   0  0  0  0  0  0  0  0  0  0  0  0
   39.4086  -28.1153  -27.9212 C   0  0  0  0  0  0  0  0  0  0  0  0
   38.8418  -28.1213  -26.6646 C   0  0  0  0  0  0  0  0  0  0  0  0
   37.7358  -28.9421  -26.7575 C   0  0  0  0  0  0  0  0  0  0  0  0
   37.6260  -29.4181  -27.9759 O   0  0  0  0  0  0  0  0  0  0  0  0
   37.9440  -28.8043  -30.9482 O   0  0  0  0  0  0  0  0  0  0  0  0
   38.7918  -29.2493  -30.1292 C   0  0  0  0  0  0  0  0  0  0  0  0
   39.8974  -30.0234  -30.6177 N   0  0  0  0  0  0  0  0  0  0  0  0
   40.5569  -30.9999  -29.9618 C   0  0  0  0  0  0  0  0  0  0  0  0
   41.4982  -31.5253  -30.8168 C   0  0  0  0  0  0  0  0  0  0  0  0
   42.7141  -32.9496  -30.4606 Br  0  0  0  0  0  0  0  0  0  0  0  0
   41.3508  -30.8274  -31.9969 C   0  0  0  0  0  0  0  0  0  0  0  0
   40.3619  -29.9234  -31.8545 N   0  0  0  0  0  0  0  0  0  0  0  0
   36.8071  -29.2820  -25.6407 C   0  0  0  0  0  0  0  0  0  0  0  0
   36.0750  -30.4553  -25.9815 O   0  0  0  0  0  0  0  0  0  0  0  0
   34.7501  -30.7033  -25.5940 C   0  0  0  0  0  0  0  0  0  0  0  0
   34.0903  -31.9136  -25.8872 C   0  0  0  0  0  0  0  0  0  0  0  0
   32.7674  -32.1107  -25.4777 C   0  0  0  0  0  0  0  0  0  0  0  0
   32.0936  -31.1077  -24.7756 C   0  0  0  0  0  0  0  0  0  0  0  0
   30.8113  -31.3009  -24.3798 F   0  0  0  0  0  0  0  0  0  0  0  0
   32.7423  -29.9052  -24.4818 C   0  0  0  0  0  0  0  0  0  0  0  0
   34.0647  -29.7050  -24.8897 C   0  0  0  0  0  0  0  0  0  0  0  0
  6  7  2  0  0  0
  7  1  1  0  0  0
  1  2  2  0  0  0
  2  3  1  0  0  0
  3  4  2  0  0  0
  4 14  1  0  0  0
 14 15  1  0  0  0
 15 16  1  0  0  0
 16 17  2  0  0  0
 17 18  1  0  0  0
 18 19  2  0  0  0
 19 20  1  0  0  0
 19 21  1  0  0  0
 21 22  2  0  0  0
  4  5  1  0  0  0
  7  8  1  0  0  0
  8  9  1  0  0  0
  9 10  2  0  0  0
 10 11  1  0  0  0
 10 12  1  0  0  0
 12 13  2  0  0  0
  5  1  1  0  0  0
 13  8  1  0  0  0
 22 16  1  0  0  0
M  END
>  <minimizedAffinity>
-6.46709

>  <molecular weight>
355.075

$$$$
mol15


 26 28  0  0  0  0  0  0  0  0999 V2000
   40.4740  -32.5165  -31.6590 C   0  0  0  0  0  0  0  0  0  0  0  0
   39.4755  -31.6705  -31.1379 C   0  0  0  0  0  0  0  0  0  0  0  0
   39.7288  -30.8963  -30.0030 C   0  0  0  0  0  0  0  0  0  0  0  0
   38.7659  -30.0809  -29.5045 N   0  0  0  0  0  0  0  0  0  0  0  0
   39.0035  -29.3284  -28.3980 C   0  0  0  0  0  0  0  0  0  0  0  0
   40.1893  -29.3763  -27.7982 O   0  0  0  0  0  0  0  0  0  0  0  0
   41.1744  -30.1538  -28.2352 C   0  0  0  0  0  0  0  0  0  0  0  0
   42.2734  -30.1585  -27.6184 O   0  0  0  0  0  0  0  0  0  0  0  0
   40.9828  -30.9569  -29.3718 C   0  0  0  0  0  0  0  0  0  0  0  0
   41.9821  -31.7979  -29.8875 C   0  0  0  0  0  0  0  0  0  0  0  0
   41.7306  -32.5796  -31.0332 C   0  0  0  0  0  0  0  0  0  0  0  0
   39.1265  -34.1547  -32.9888 C   0  0  0  0  0  0  0  0  0  0  0  0
   40.2570  -33.3096  -32.7970 O   0  0  0  0  0  0  0  0  0  0  0  0
   42.7033  -33.4313  -31.5811 O   0  0  0  0  0  0  0  0  0  0  0  0
   43.8783  -33.8602  -30.9001 C   0  0  0  0  0  0  0  0  0  0  0  0
   37.9444  -28.4167  -27.8768 C   0  0  0  0  0  0  0  0  0  0  0  0
   37.8839  -28.5386  -26.4588 O   0  0  0  0  0  0  0  0  0  0  0  0
   36.7057  -28.7239  -25.7172 C   0  0  0  0  0  0  0  0  0  0  0  0
   36.0968  -29.9925  -25.6180 C   0  0  0  0  0  0  0  0  0  0  0  0
   34.9320  -30.1648  -24.8703 C   0  0  0  0  0  0  0  0  0  0  0  0
   34.3590  -29.0801  -24.2106 C   0  0  0  0  0  0  0  0  0  0  0  0
   34.9469  -27.8177  -24.2971 C   0  0  0  0  0  0  0  0  0  0  0  0
   36.1196  -27.6177  -25.0504 C   0  0  0  0  0  0  0  0  0  0  0  0
   36.6954  -26.2956  -25.1234 N   0  0  0  0  0  0  0  0  0  0  0  0
   37.4565  -25.8700  -24.2300 O   0  0  0  0  0  0  0  0  0  0  0  0
   36.4408  -25.4862  -26.2075 O   0  0  0  0  0  0  0  0  0  0  0  0
 12 13  1  0  0  0
 13  1  1  0  0  0
  1  2  2  0  0  0
  2  3  1  0  0  0
  3  4  1  0  0  0
  4  5  2  0  0  0
  5 16  1  0  0  0
 16 17  1  0  0  0
 17 18  1  0  0  0
 18 19  2  0  0  0
 19 20  1  0  0  0
 20 21  2  0  0  0
 21 22  1  0  0  0
 22 23  2  0  0  0
 23 24  1  0  0  0
 24 25  2  0  0  0
 24 26  1  0  0  0
  5  6  1  0  0  0
  6  7  1  0  0  0
  7  8  2  0  0  0
  7  9  1  0  0  0
  9 10  1  0  0  0
 10 11  2  0  0  0
 11 14  1  0  0  0
 14 15  1  0  0  0
 11  1  1  0  0  0
  9  3  2  0  0  0
 23 18  1  0  0  0
M  CHG 1  24   1
M  CHG 1  26  -1
M  END
>  <minimizedAffinity>
-6.65417

>  <molecular weight>
344.191

$$$$
mol16


 22 24  0  0  0  0  0  0  0  0999 V2000
   39.4704  -31.6873  -30.1611 N   0  0  0  0  0  0  0  0  0  0  0  0
   40.4583  -32.2377  -30.8016 C   0  0  0  0  0  0  0  0  0  0  0  0
   41.9019  -31.9123  -30.4435 C   0  0  0  0  0  0  0  0  0  0  0  0
   42.8306  -33.1322  -30.5316 C   0  0  0  0  0  0  0  0  0  0  0  0
   42.8142  -33.8192  -32.1771 S   0  0  0  0  0  0  0  0  0  0  0  0
   43.3375  -35.2273  -32.1511 O   0  0  0  0  0  0  0  0  0  0  0  0
   43.6366  -32.9740  -33.1081 O   0  0  0  0  0  0  0  0  0  0  0  0
   41.1388  -33.7955  -32.6550 C   0  0  0  0  0  0  0  0  0  0  0  0
   40.4496  -34.6594  -33.9169 S   0  0  0  0  0  0  0  0  0  0  0  0
   38.8737  -34.1395  -33.6227 C   0  0  0  0  0  0  0  0  0  0  0  0
   38.8808  -33.2873  -32.5227 C   0  0  0  0  0  0  0  0  0  0  0  0
   40.1596  -33.0918  -31.9758 C   0  0  0  0  0  0  0  0  0  0  0  0
   39.6626  -30.8280  -29.1012 O   0  0  0  0  0  0  0  0  0  0  0  0
   38.9782  -29.6152  -29.0238 C   0  0  0  0  0  0  0  0  0  0  0  0
   38.4830  -29.1085  -30.0678 O   0  0  0  0  0  0  0  0  0  0  0  0
   40.8756  -26.6495  -25.4317 C   0  0  0  0  0  0  0  0  0  0  0  0
   39.7583  -27.4893  -25.9774 C   0  0  0  0  0  0  0  0  0  0  0  0
   38.5709  -27.6240  -25.2450 C   0  0  0  0  0  0  0  0  0  0  0  0
   37.5234  -28.4024  -25.7411 C   0  0  0  0  0  0  0  0  0  0  0  0
   37.6520  -29.0523  -26.9710 C   0  0  0  0  0  0  0  0  0  0  0  0
   38.8358  -28.9293  -27.7206 C   0  0  0  0  0  0  0  0  0  0  0  0
   39.8870  -28.1431  -27.2141 C   0  0  0  0  0  0  0  0  0  0  0  0
 16 17  1  0  0  0
 17 18  2  0  0  0
 18 19  1  0  0  0
 19 20  2  0  0  0
 20 21  1  0  0  0
 21 14  1  0  0  0
 14 15  2  0  0  0
 14 13  1  0  0  0
 13  1  1  0  0  0
  1  2  2  0  0  0
  2  3  1  0  0  0
  3  4  1  0  0  0
  4  5  1  0  0  0
  5  6  2  0  0  0
  5  7  2  0  0  0
  5  8  1  0  0  0
  8  9  1  0  0  0
  9 10  1  0  0  0
 10 11  2  0  0  0
 11 12  1  0  0  0
 21 22  2  0  0  0
 22 17  1  0  0  0
 12  2  1  0  0  0
 12  8  2  0  0  0
M  END
>  <minimizedAffinity>
-7.07902

>  <molecular weight>
322.295

$$$$
mol17


 26 28  0  0  0  0  0  0  0  0999 V2000
   41.1716  -31.6779  -29.8497 C   0  0  0  0  0  0  0  0  0  0  0  0
   41.4815  -30.8973  -28.7257 C   0  0  0  0  0  0  0  0  0  0  0  0
   40.6473  -29.8416  -28.3464 C   0  0  0  0  0  0  0  0  0  0  0  0
   39.4852  -29.5504  -29.0823 C   0  0  0  0  0  0  0  0  0  0  0  0
   39.1879  -30.3231  -30.2184 C   0  0  0  0  0  0  0  0  0  0  0  0
   40.0219  -31.3790  -30.5963 C   0  0  0  0  0  0  0  0  0  0  0  0
   38.6005  -28.4262  -28.6931 C   0  0  0  0  0  0  0  0  0  0  0  0
   38.4166  -27.4770  -29.5027 O   0  0  0  0  0  0  0  0  0  0  0  0
   37.9154  -28.4224  -27.4295 N   0  0  0  0  0  0  0  0  0  0  0  0
   37.4526  -29.5212  -26.8477 N   0  0  0  0  0  0  0  0  0  0  0  0
   36.8089  -29.1608  -25.7173 C   0  0  0  0  0  0  0  0  0  0  0  0
   36.8596  -27.7885  -25.5861 C   0  0  0  0  0  0  0  0  0  0  0  0
   37.5632  -27.3510  -26.6858 C   0  0  0  0  0  0  0  0  0  0  0  0
   37.9318  -25.9950  -26.9561 N   0  0  0  0  0  0  0  0  0  0  0  0
   37.5971  -25.2255  -26.3350 H   0  0  0  0  0  0  0  0  0  0  0  0
   38.5838  -25.7514  -27.7321 H   0  0  0  0  0  0  0  0  0  0  0  0
   36.3172  -27.0006  -24.5126 C   0  0  0  0  0  0  0  0  0  0  0  0
   35.8809  -26.3662  -23.6487 N   0  0  0  0  0  0  0  0  0  0  0  0
   42.0668  -32.8113  -30.2649 C   0  0  0  0  0  0  0  0  0  0  0  0
   42.8938  -32.4048  -31.8384 S   0  0  0  0  0  0  0  0  0  0  0  0
   40.3663  -32.7991  -33.9100 C   0  0  0  0  0  0  0  0  0  0  0  0
   41.2284  -33.9016  -33.5008 N   0  0  0  0  0  0  0  0  0  0  0  0
   41.1558  -35.1903  -33.8761 C   0  0  0  0  0  0  0  0  0  0  0  0
   42.1319  -35.9170  -33.2967 N   0  0  0  0  0  0  0  0  0  0  0  0
   42.8415  -35.0901  -32.5404 N   0  0  0  0  0  0  0  0  0  0  0  0
   42.2848  -33.8719  -32.6700 C   0  0  0  0  0  0  0  0  0  0  0  0
 21 22  1  0  0  0
 22 23  1  0  0  0
 23 24  2  0  0  0
 24 25  1  0  0  0
 25 26  2  0  0  0
 26 20  1  0  0  0
 20 19  1  0  0  0
 19  1  1  0  0  0
  1  2  2  0  0  0
  2  3  1  0  0  0
  3  4  2  0  0  0
  4  7  1  0  0  0
  7  8  2  0  0  0
  7  9  1  0  0  0
  9 10  1  0  0  0
 10 11  2  0  0  0
 11 12  1  0  0  0
 12 17  1  0  0  0
 17 18  3  0  0  0
 12 13  2  0  0  0
 13 14  1  0  0  0
  4  5  1  0  0  0
  5  6  2  0  0  0
 26 22  1  0  0  0
  6  1  1  0  0  0
 13  9  1  0  0  0
 14 15  1  0  0  0
 14 16  1  0  0  0
M  END
>  <minimizedAffinity>
-6.72679

>  <molecular weight>
328.288

$$$$
mol18


 30 34  0  0  0  0  0  0  0  0999 V2000
   38.8182  -29.1279  -27.5356 C   0  0  0  0  0  0  0  0  0  0  0  0
   37.6136  -29.6039  -27.1670 N   0  0  0  0  0  0  0  0  0  0  0  0
   37.1573  -28.8483  -26.1798 N   0  0  0  0  0  0  0  0  0  0  0  0
   38.0569  -27.8803  -25.9022 C   0  0  0  0  0  0  0  0  0  0  0  0
   39.1332  -28.0124  -26.7626 C   0  0  0  0  0  0  0  0  0  0  0  0
   40.3149  -27.1199  -26.8582 C   0  0  0  0  0  0  0  0  0  0  0  0
   41.3025  -27.3147  -26.1021 O   0  0  0  0  0  0  0  0  0  0  0  0
   40.3740  -26.0576  -27.8248 N   0  0  0  0  0  0  0  0  0  0  0  0
   39.8010  -26.0894  -29.0251 N   0  0  0  0  0  0  0  0  0  0  0  0
   40.0873  -24.9940  -29.7269 N   0  0  0  0  0  0  0  0  0  0  0  0
   40.8805  -24.2522  -28.9344 C   0  0  0  0  0  0  0  0  0  0  0  0
   41.4523  -23.0105  -29.1934 C   0  0  0  0  0  0  0  0  0  0  0  0
   42.2430  -22.4370  -28.1783 C   0  0  0  0  0  0  0  0  0  0  0  0
   42.4325  -23.1117  -26.9484 C   0  0  0  0  0  0  0  0  0  0  0  0
   41.8365  -24.3682  -26.7222 C   0  0  0  0  0  0  0  0  0  0  0  0
   41.0676  -24.9073  -27.7558 C   0  0  0  0  0  0  0  0  0  0  0  0
   39.8069  -30.5955  -30.8750 C   0  0  0  0  0  0  0  0  0  0  0  0
   41.1141  -31.0397  -30.5970 C   0  0  0  0  0  0  0  0  0  0  0  0
   41.6616  -30.8594  -29.3241 C   0  0  0  0  0  0  0  0  0  0  0  0
   40.9193  -30.2296  -28.3227 C   0  0  0  0  0  0  0  0  0  0  0  0
   39.6263  -29.7583  -28.5939 C   0  0  0  0  0  0  0  0  0  0  0  0
   39.0695  -29.9647  -29.8650 C   0  0  0  0  0  0  0  0  0  0  0  0
   39.0580  -32.0148  -32.7921 C   0  0  0  0  0  0  0  0  0  0  0  0
   39.2077  -30.7618  -32.1324 O   0  0  0  0  0  0  0  0  0  0  0  0
   35.8937  -29.0783  -25.5225 C   0  0  0  0  0  0  0  0  0  0  0  0
   35.2649  -30.3395  -25.5635 C   0  0  0  0  0  0  0  0  0  0  0  0
   34.0416  -30.5427  -24.9169 C   0  0  0  0  0  0  0  0  0  0  0  0
   33.4331  -29.4963  -24.2210 C   0  0  0  0  0  0  0  0  0  0  0  0
   34.0480  -28.2443  -24.1669 C   0  0  0  0  0  0  0  0  0  0  0  0
   35.2714  -28.0351  -24.8105 C   0  0  0  0  0  0  0  0  0  0  0  0
 23 24  1  0  0  0
 24 17  1  0  0  0
 17 18  2  0  0  0
 18 19  1  0  0  0
 19 20  2  0  0  0
 20 21  1  0  0  0
 21  1  1  0  0  0
  1  2  2  0  0  0
  2  3  1  0  0  0
  3 25  1  0  0  0
 25 26  2  0  0  0
 26 27  1  0  0  0
 27 28  2  0  0  0
 28 29  1  0  0  0
 29 30  2  0  0  0
  3  4  1  0  0  0
  4  5  2  0  0  0
  5  6  1  0  0  0
  6  7  2  0  0  0
  6  8  1  0  0  0
  8  9  1  0  0  0
  9 10  2  0  0  0
 10 11  1  0  0  0
 11 12  2  0  0  0
 12 13  1  0  0  0
 13 14  2  0  0  0
 14 15  1  0  0  0
 15 16  2  0  0  0
 21 22  2  0  0  0
 22 17  1  0  0  0
  5  1  1  0  0  0
 16  8  1  0  0  0
 30 25  1  0  0  0
 16 11  1  0  0  0
M  END
>  <minimizedAffinity>
-7.54303

>  <molecular weight>
378.278

$$$$
mol19


 20 22  0  0  0  0  0  0  0  0999 V2000
   38.5917  -29.0850  -30.6953 C   0  0  0  0  0  0  0  0  0  0  0  0
   37.9414  -29.1921  -29.5178 N   0  0  0  0  0  0  0  0  0  0  0  0
   38.1961  -28.1340  -28.6998 C   0  0  0  0  0  0  0  0  0  0  0  0
   39.0450  -27.1658  -29.2371 C   0  0  0  0  0  0  0  0  0  0  0  0
   39.4824  -27.6578  -30.7846 S   0  0  0  0  0  0  0  0  0  0  0  0
   37.6025  -28.0359  -27.3563 C   0  0  0  0  0  0  0  0  0  0  0  0
   37.4675  -29.0861  -26.4521 C   0  0  0  0  0  0  0  0  0  0  0  0
   36.8665  -28.7058  -25.2463 C   0  0  0  0  0  0  0  0  0  0  0  0
   36.5311  -27.3609  -25.2050 C   0  0  0  0  0  0  0  0  0  0  0  0
   35.7673  -26.5383  -23.8612 Cl  0  0  0  0  0  0  0  0  0  0  0  0
   36.9747  -26.6371  -26.6543 S   0  0  0  0  0  0  0  0  0  0  0  0
   39.6648  -30.8510  -33.5518 O   0  0  0  0  0  0  0  0  0  0  0  0
   39.5346  -30.7863  -32.3004 C   0  0  0  0  0  0  0  0  0  0  0  0
   38.4412  -30.0416  -31.7514 N   0  0  0  0  0  0  0  0  0  0  0  0
   37.5177  -30.0920  -32.2369 H   0  0  0  0  0  0  0  0  0  0  0  0
   40.4691  -31.5297  -31.4360 C   0  0  0  0  0  0  0  0  0  0  0  0
   40.1241  -32.2441  -30.2942 C   0  0  0  0  0  0  0  0  0  0  0  0
   41.2260  -32.8084  -29.6397 C   0  0  0  0  0  0  0  0  0  0  0  0
   42.4413  -32.5320  -30.2521 C   0  0  0  0  0  0  0  0  0  0  0  0
   42.1437  -31.5832  -31.6075 S   0  0  0  0  0  0  0  0  0  0  0  0
 12 13  2  0  0  0
 13 14  1  0  0  0
 14  1  1  0  0  0
  1  2  2  0  0  0
  2  3  1  0  0  0
  3  6  1  0  0  0
  6  7  2  0  0  0
  7  8  1  0  0  0
  8  9  2  0  0  0
  9 10  1  0  0  0
  9 11  1  0  0  0
  3  4  2  0  0  0
  4  5  1  0  0  0
 13 16  1  0  0  0
 16 17  2  0  0  0
 17 18  1  0  0  0
 18 19  2  0  0  0
 19 20  1  0  0  0
  5  1  1  0  0  0
 20 16  1  0  0  0
 11  6  1  0  0  0
 14 15  1  0  0  0
M  END
>  <minimizedAffinity>
-5.53626

>  <molecular weight>
320.797

$$$$
mol20


 24 26  0  0  0  0  0  0  0  0999 V2000
   38.8683  -28.3008  -28.5541 C   0  0  0  0  0  0  0  0  0  0  0  0
   39.0948  -28.4887  -27.1804 C   0  0  0  0  0  0  0  0  0  0  0  0
   38.0186  -28.6152  -26.2976 C   0  0  0  0  0  0  0  0  0  0  0  0
   36.6970  -28.5829  -26.7743 C   0  0  0  0  0  0  0  0  0  0  0  0
   36.4741  -28.4044  -28.1505 C   0  0  0  0  0  0  0  0  0  0  0  0
   37.5514  -28.2772  -29.0321 C   0  0  0  0  0  0  0  0  0  0  0  0
   35.5632  -28.7054  -25.8281 C   0  0  0  0  0  0  0  0  0  0  0  0
   35.3012  -27.7433  -25.0563 O   0  0  0  0  0  0  0  0  0  0  0  0
   34.7813  -29.9098  -25.7518 N   0  0  0  0  0  0  0  0  0  0  0  0
   35.2300  -31.1211  -26.0718 N   0  0  0  0  0  0  0  0  0  0  0  0
   34.3064  -32.0539  -25.8459 N   0  0  0  0  0  0  0  0  0  0  0  0
   33.2397  -31.3978  -25.3570 C   0  0  0  0  0  0  0  0  0  0  0  0
   32.0074  -31.9121  -24.9661 C   0  0  0  0  0  0  0  0  0  0  0  0
   31.0444  -30.9990  -24.4941 C   0  0  0  0  0  0  0  0  0  0  0  0
   31.3368  -29.6157  -24.4321 C   0  0  0  0  0  0  0  0  0  0  0  0
   32.5960  -29.1313  -24.8380 C   0  0  0  0  0  0  0  0  0  0  0  0
   33.5272  -30.0684  -25.2910 C   0  0  0  0  0  0  0  0  0  0  0  0
   40.3894  -29.2523  -30.3553 C   0  0  0  0  0  0  0  0  0  0  0  0
   40.8944  -28.9565  -31.4715 O   0  0  0  0  0  0  0  0  0  0  0  0
   39.9595  -28.1956  -29.4836 N   0  0  0  0  0  0  0  0  0  0  0  0
   40.4655  -27.2831  -29.5461 H   0  0  0  0  0  0  0  0  0  0  0  0
   40.3034  -30.7004  -29.9498 C   0  0  0  0  0  0  0  0  0  0  0  0
   41.8667  -32.6623  -29.6745 C   0  0  0  0  0  0  0  0  0  0  0  0
   41.6361  -31.1852  -29.3678 C   0  0  0  0  0  0  0  0  0  0  0  0
 23 24  1  0  0  0
 24 22  1  0  0  0
 22 18  1  0  0  0
 18 19  2  0  0  0
 18 20  1  0  0  0
 20  1  1  0  0  0
  1  2  2  0  0  0
  2  3  1  0  0  0
  3  4  2  0  0  0
  4  7  1  0  0  0
  7  8  2  0  0  0
  7  9  1  0  0  0
  9 10  1  0  0  0
 10 11  2  0  0  0
 11 12  1  0  0  0
 12 13  2  0  0  0
 13 14  1  0  0  0
 14 15  2  0  0  0
 15 16  1  0  0  0
 16 17  2  0  0  0
  4  5  1  0  0  0
  5  6  2  0  0  0
  6  1  1  0  0  0
 17  9  1  0  0  0
 17 12  1  0  0  0
 20 21  1  0  0  0
M  END
>  <minimizedAffinity>
-6.32895

>  <molecular weight>
293.215

$$$$
mol21


 20 22  0  0  0  0  0  0  0  0999 V2000
   40.4420  -30.2577  -28.9598 C   0  0  0  0  0  0  0  0  0  0  0  0
   41.6367  -30.3149  -28.5668 O   0  0  0  0  0  0  0  0  0  0  0  0
   39.4659  -29.5538  -28.1718 N   0  0  0  0  0  0  0  0  0  0  0  0
   38.1519  -29.7453  -28.2610 N   0  0  0  0  0  0  0  0  0  0  0  0
   37.4922  -28.9899  -27.3847 N   0  0  0  0  0  0  0  0  0  0  0  0
   38.4343  -28.3018  -26.7168 C   0  0  0  0  0  0  0  0  0  0  0  0
   38.2686  -27.3677  -25.6990 C   0  0  0  0  0  0  0  0  0  0  0  0
   39.4302  -26.7734  -25.1695 C   0  0  0  0  0  0  0  0  0  0  0  0
   40.7069  -27.1229  -25.6699 C   0  0  0  0  0  0  0  0  0  0  0  0
   40.8359  -28.0724  -26.7027 C   0  0  0  0  0  0  0  0  0  0  0  0
   39.6617  -28.6470  -27.1962 C   0  0  0  0  0  0  0  0  0  0  0  0
   39.9825  -30.2275  -31.4603 C   0  0  0  0  0  0  0  0  0  0  0  0
   39.6991  -30.9327  -32.6395 C   0  0  0  0  0  0  0  0  0  0  0  0
   39.4314  -32.3014  -32.6011 C   0  0  0  0  0  0  0  0  0  0  0  0
   39.4598  -32.9839  -31.3860 C   0  0  0  0  0  0  0  0  0  0  0  0
   39.7720  -32.3029  -30.2079 C   0  0  0  0  0  0  0  0  0  0  0  0
   40.0519  -30.9240  -30.2271 C   0  0  0  0  0  0  0  0  0  0  0  0
   40.3390  -28.4634  -31.5921 S   0  0  0  0  0  0  0  0  0  0  0  0
   38.5220  -26.7844  -30.3145 C   0  0  0  0  0  0  0  0  0  0  0  0
   38.6134  -27.9035  -31.3431 C   0  0  0  0  0  0  0  0  0  0  0  0
 19 20  1  0  0  0
 20 18  1  0  0  0
 18 12  1  0  0  0
 12 13  2  0  0  0
 13 14  1  0  0  0
 14 15  2  0  0  0
 15 16  1  0  0  0
 16 17  2  0  0  0
 17  1  1  0  0  0
  1  2  2  0  0  0
  1  3  1  0  0  0
  3  4  1  0  0  0
  4  5  2  0  0  0
  5  6  1  0  0  0
  6  7  2  0  0  0
  7  8  1  0  0  0
  8  9  2  0  0  0
  9 10  1  0  0  0
 10 11  2  0  0  0
 17 12  1  0  0  0
 11  3  1  0  0  0
 11  6  1  0  0  0
M  END
>  <minimizedAffinity>
-5.79012

>  <molecular weight>
270.245

$$$$
mol22


 20 21  0  0  0  0  0  0  0  0999 V2000
   42.2559  -34.0012  -33.0410 C   0  0  0  0  0  0  0  0  0  0  0  0
   43.3626  -33.1882  -33.3555 C   0  0  0  0  0  0  0  0  0  0  0  0
   43.2462  -31.8015  -33.3671 C   0  0  0  0  0  0  0  0  0  0  0  0
   42.0291  -31.1991  -33.0684 C   0  0  0  0  0  0  0  0  0  0  0  0
   40.9074  -31.9776  -32.7464 C   0  0  0  0  0  0  0  0  0  0  0  0
   41.0104  -33.3893  -32.7295 C   0  0  0  0  0  0  0  0  0  0  0  0
   39.6200  -31.2993  -32.4537 C   0  0  0  0  0  0  0  0  0  0  0  0
   38.7428  -31.2200  -33.3556 O   0  0  0  0  0  0  0  0  0  0  0  0
   39.3540  -30.7446  -31.1536 N   0  0  0  0  0  0  0  0  0  0  0  0
   39.7997  -31.1984  -29.9657 C   0  0  0  0  0  0  0  0  0  0  0  0
   39.2863  -30.4839  -28.9448 N   0  0  0  0  0  0  0  0  0  0  0  0
   38.4977  -29.5573  -29.4700 N   0  0  0  0  0  0  0  0  0  0  0  0
   38.5401  -29.7272  -30.8039 C   0  0  0  0  0  0  0  0  0  0  0  0
   37.8455  -28.8790  -31.7199 N   0  0  0  0  0  0  0  0  0  0  0  0
   37.9922  -28.9474  -32.7497 H   0  0  0  0  0  0  0  0  0  0  0  0
   37.2200  -28.1265  -31.3563 H   0  0  0  0  0  0  0  0  0  0  0  0
   43.5419  -36.1245  -33.4074 C   0  0  0  0  0  0  0  0  0  0  0  0
   42.3745  -35.4001  -33.0320 O   0  0  0  0  0  0  0  0  0  0  0  0
   39.8564  -34.1213  -32.3828 O   0  0  0  0  0  0  0  0  0  0  0  0
   38.9848  -34.8127  -33.2705 C   0  0  0  0  0  0  0  0  0  0  0  0
 17 18  1  0  0  0
 18  1  1  0  0  0
  1  2  2  0  0  0
  2  3  1  0  0  0
  3  4  2  0  0  0
  4  5  1  0  0  0
  5  7  1  0  0  0
  7  8  2  0  0  0
  7  9  1  0  0  0
  9 10  1  0  0  0
 10 11  2  0  0  0
 11 12  1  0  0  0
 12 13  2  0  0  0
 13 14  1  0  0  0
  5  6  2  0  0  0
  6 19  1  0  0  0
 19 20  1  0  0  0
  6  1  1  0  0  0
 13  9  1  0  0  0
 14 15  1  0  0  0
 14 16  1  0  0  0
M  END
>  <minimizedAffinity>
-5.82542

>  <molecular weight>
238.159

$$$$
mol23


 25 27  0  0  0  0  0  0  0  0999 V2000
   39.8162  -30.5337  -32.1847 S   0  0  0  0  0  0  0  0  0  0  0  0
   38.7231  -29.9905  -33.0633 O   0  0  0  0  0  0  0  0  0  0  0  0
   40.8529  -29.4692  -31.9552 O   0  0  0  0  0  0  0  0  0  0  0  0
   39.5679  -35.5720  -33.9165 C   0  0  0  0  0  0  0  0  0  0  0  0
   40.3585  -34.3071  -33.6840 C   0  0  0  0  0  0  0  0  0  0  0  0
   41.7450  -34.3498  -33.8524 C   0  0  0  0  0  0  0  0  0  0  0  0
   42.5342  -33.2110  -33.6749 C   0  0  0  0  0  0  0  0  0  0  0  0
   44.0197  -33.3247  -33.9169 C   0  0  0  0  0  0  0  0  0  0  0  0
   41.9273  -31.9867  -33.3038 C   0  0  0  0  0  0  0  0  0  0  0  0
   42.7660  -30.7272  -33.2386 C   0  0  0  0  0  0  0  0  0  0  0  0
   40.5400  -31.9628  -32.9829 C   0  0  0  0  0  0  0  0  0  0  0  0
   39.7355  -33.0984  -33.2868 C   0  0  0  0  0  0  0  0  0  0  0  0
   38.2267  -33.0419  -33.1604 C   0  0  0  0  0  0  0  0  0  0  0  0
   39.1966  -30.9624  -30.6723 O   0  0  0  0  0  0  0  0  0  0  0  0
   39.4078  -29.8913  -29.8680 N   0  0  0  0  0  0  0  0  0  0  0  0
   38.4655  -28.8542  -29.6022 C   0  0  0  0  0  0  0  0  0  0  0  0
   37.4297  -28.6438  -30.2864 O   0  0  0  0  0  0  0  0  0  0  0  0
   38.8694  -28.1197  -28.4074 C   0  0  0  0  0  0  0  0  0  0  0  0
   38.2822  -27.0303  -27.7668 C   0  0  0  0  0  0  0  0  0  0  0  0
   38.8986  -26.5388  -26.6020 C   0  0  0  0  0  0  0  0  0  0  0  0
   40.0736  -27.1433  -26.1038 C   0  0  0  0  0  0  0  0  0  0  0  0
   40.6446  -28.2455  -26.7649 C   0  0  0  0  0  0  0  0  0  0  0  0
   40.0190  -28.7111  -27.9199 C   0  0  0  0  0  0  0  0  0  0  0  0
   40.3527  -29.8251  -28.8018 C   0  0  0  0  0  0  0  0  0  0  0  0
   41.3022  -30.6367  -28.6433 O   0  0  0  0  0  0  0  0  0  0  0  0
  4  5  1  0  0  0
  5  6  2  0  0  0
  6  7  1  0  0  0
  7  8  1  0  0  0
  7  9  2  0  0  0
  9 10  1  0  0  0
  9 11  1  0  0  0
 11  1  1  0  0  0
  1  2  2  0  0  0
  1  3  2  0  0  0
  1 14  1  0  0  0
 14 15  1  0  0  0
 15 16  1  0  0  0
 16 17  2  0  0  0
 16 18  1  0  0  0
 18 19  2  0  0  0
 19 20  1  0  0  0
 20 21  2  0  0  0
 21 22  1  0  0  0
 22 23  2  0  0  0
 23 24  1  0  0  0
 24 25  2  0  0  0
 11 12  2  0  0  0
 12 13  1  0  0  0
 12  5  1  0  0  0
 24 15  1  0  0  0
 23 18  1  0  0  0
M  END
>  <minimizedAffinity>
-6.62924

>  <molecular weight>
342.261

$$$$
mol24


 21 22  0  0  0  0  0  0  0  0999 V2000
   36.1278  -29.8970  -25.3042 N   0  0  0  0  0  0  0  0  0  0  0  0
   36.6524  -29.1440  -26.4095 C   0  0  0  0  0  0  0  0  0  0  0  0
   35.9520  -28.9591  -27.4418 O   0  0  0  0  0  0  0  0  0  0  0  0
   36.6173  -29.8415  -24.3829 H   0  0  0  0  0  0  0  0  0  0  0  0
   37.9902  -28.5193  -26.3260 C   0  0  0  0  0  0  0  0  0  0  0  0
   38.2547  -27.6190  -25.2788 C   0  0  0  0  0  0  0  0  0  0  0  0
   39.5115  -27.0214  -25.1566 C   0  0  0  0  0  0  0  0  0  0  0  0
   40.5147  -27.3070  -26.0833 C   0  0  0  0  0  0  0  0  0  0  0  0
   40.2606  -28.1827  -27.1406 C   0  0  0  0  0  0  0  0  0  0  0  0
   39.0046  -28.7884  -27.2740 C   0  0  0  0  0  0  0  0  0  0  0  0
   38.7237  -29.8017  -28.6873 Cl  0  0  0  0  0  0  0  0  0  0  0  0
   33.0228  -31.4501  -25.0271 C   0  0  0  0  0  0  0  0  0  0  0  0
   33.8425  -30.4532  -24.6389 N   0  0  0  0  0  0  0  0  0  0  0  0
   34.9438  -30.7010  -25.3803 C   0  0  0  0  0  0  0  0  0  0  0  0
   34.8149  -31.7847  -26.1719 N   0  0  0  0  0  0  0  0  0  0  0  0
   33.6004  -32.2474  -25.9427 N   0  0  0  0  0  0  0  0  0  0  0  0
   33.1877  -33.0881  -26.4043 H   0  0  0  0  0  0  0  0  0  0  0  0
   31.6649  -31.6362  -24.5046 C   0  0  0  0  0  0  0  0  0  0  0  0
   31.2074  -32.8003  -24.3416 O   0  0  0  0  0  0  0  0  0  0  0  0
   29.6822  -30.6053  -23.4438 C   0  0  0  0  0  0  0  0  0  0  0  0
   30.8890  -30.5164  -24.1915 O   0  0  0  0  0  0  0  0  0  0  0  0
 20 21  1  0  0  0
 21 18  1  0  0  0
 18 19  2  0  0  0
 18 12  1  0  0  0
 12 13  2  0  0  0
 13 14  1  0  0  0
 14  1  1  0  0  0
  1  2  1  0  0  0
  2  3  2  0  0  0
  2  5  1  0  0  0
  5  6  2  0  0  0
  6  7  1  0  0  0
  7  8  2  0  0  0
  8  9  1  0  0  0
  9 10  2  0  0  0
 10 11  1  0  0  0
 14 15  2  0  0  0
 15 16  1  0  0  0
 16 12  1  0  0  0
 10  5  1  0  0  0
  1  4  1  0  0  0
 16 17  1  0  0  0
M  END
>  <minimizedAffinity>
-6.08631

>  <molecular weight>
273.612

$$$$
mol25


 31 33  0  0  0  0  0  0  0  0999 V2000
   39.4486  -30.2813  -29.0941 C   0  0  0  0  0  0  0  0  0  0  0  0
   40.6151  -29.7723  -28.5558 C   0  0  0  0  0  0  0  0  0  0  0  0
   40.1661  -28.8393  -27.6470 C   0  0  0  0  0  0  0  0  0  0  0  0
   38.8192  -28.8096  -27.6605 N   0  0  0  0  0  0  0  0  0  0  0  0
   38.3690  -29.6880  -28.5408 N   0  0  0  0  0  0  0  0  0  0  0  0
   40.9971  -28.0306  -26.8127 N   0  0  0  0  0  0  0  0  0  0  0  0
   42.0362  -28.1181  -26.8662 H   0  0  0  0  0  0  0  0  0  0  0  0
   40.5864  -27.3446  -26.1426 H   0  0  0  0  0  0  0  0  0  0  0  0
   37.7861  -27.8165  -26.6868 S   0  0  0  0  0  0  0  0  0  0  0  0
   37.4076  -26.5814  -27.4546 O   0  0  0  0  0  0  0  0  0  0  0  0
   38.5292  -27.4138  -25.4438 O   0  0  0  0  0  0  0  0  0  0  0  0
   36.3243  -28.7037  -26.2702 C   0  0  0  0  0  0  0  0  0  0  0  0
   35.1213  -28.4232  -26.9315 C   0  0  0  0  0  0  0  0  0  0  0  0
   33.9582  -29.1271  -26.6056 C   0  0  0  0  0  0  0  0  0  0  0  0
   33.9828  -30.1074  -25.6016 C   0  0  0  0  0  0  0  0  0  0  0  0
   32.7446  -30.8901  -25.2792 C   0  0  0  0  0  0  0  0  0  0  0  0
   35.1913  -30.3946  -24.9484 C   0  0  0  0  0  0  0  0  0  0  0  0
   36.3541  -29.6907  -25.2761 C   0  0  0  0  0  0  0  0  0  0  0  0
   39.4020  -31.2749  -30.0783 O   0  0  0  0  0  0  0  0  0  0  0  0
   39.5295  -31.0414  -31.4548 C   0  0  0  0  0  0  0  0  0  0  0  0
   38.6952  -30.3147  -32.0609 O   0  0  0  0  0  0  0  0  0  0  0  0
   41.8315  -33.6772  -33.0003 C   0  0  0  0  0  0  0  0  0  0  0  0
   42.8572  -32.8463  -33.4642 C   0  0  0  0  0  0  0  0  0  0  0  0
   42.7764  -31.4635  -33.3233 C   0  0  0  0  0  0  0  0  0  0  0  0
   41.6777  -30.8877  -32.6903 C   0  0  0  0  0  0  0  0  0  0  0  0
   40.6326  -31.6891  -32.2033 C   0  0  0  0  0  0  0  0  0  0  0  0
   40.6828  -33.0927  -32.4042 C   0  0  0  0  0  0  0  0  0  0  0  0
   43.2466  -35.7180  -33.4642 C   0  0  0  0  0  0  0  0  0  0  0  0
   42.0203  -35.0619  -33.1626 O   0  0  0  0  0  0  0  0  0  0  0  0
   39.5973  -33.8920  -32.0359 O   0  0  0  0  0  0  0  0  0  0  0  0
   38.5694  -34.2292  -32.9628 C   0  0  0  0  0  0  0  0  0  0  0  0
 28 29  1  0  0  0
 29 22  1  0  0  0
 22 23  2  0  0  0
 23 24  1  0  0  0
 24 25  2  0  0  0
 25 26  1  0  0  0
 26 20  1  0  0  0
 20 21  2  0  0  0
 20 19  1  0  0  0
 19  1  1  0  0  0
  1  2  1  0  0  0
  2  3  2  0  0  0
  3  6  1  0  0  0
  3  4  1  0  0  0
  4  9  1  0  0  0
  9 10  2  0  0  0
  9 11  2  0  0  0
  9 12  1  0  0  0
 12 13  2  0  0  0
 13 14  1  0  0  0
 14 15  2  0  0  0
 15 16  1  0  0  0
 15 17  1  0  0  0
 17 18  2  0  0  0
  4  5  1  0  0  0
 26 27  2  0  0  0
 27 30  1  0  0  0
 30 31  1  0  0  0
 27 22  1  0  0  0
  5  1  2  0  0  0
 18 12  1  0  0  0
  6  7  1  0  0  0
  6  8  1  0  0  0
M  END
>  <minimizedAffinity>
-7.36521

>  <molecular weight>
400.301

$$$$
mol26


 21 23  0  0  0  0  0  0  0  0999 V2000
   38.0169  -27.6148  -25.9498 C   0  0  0  0  0  0  0  0  0  0  0  0
   36.9412  -28.0514  -25.2665 N   0  0  0  0  0  0  0  0  0  0  0  0
   36.5994  -29.1595  -25.9594 C   0  0  0  0  0  0  0  0  0  0  0  0
   37.4156  -29.3958  -27.0041 N   0  0  0  0  0  0  0  0  0  0  0  0
   38.3119  -28.4251  -26.9881 N   0  0  0  0  0  0  0  0  0  0  0  0
   39.3636  -28.2830  -27.9603 C   0  0  0  0  0  0  0  0  0  0  0  0
   39.8786  -27.1503  -28.1636 O   0  0  0  0  0  0  0  0  0  0  0  0
   39.8381  -29.4397  -28.7555 C   0  0  0  0  0  0  0  0  0  0  0  0
   39.1497  -29.8226  -29.9208 C   0  0  0  0  0  0  0  0  0  0  0  0
   39.5961  -30.9061  -30.6834 C   0  0  0  0  0  0  0  0  0  0  0  0
   40.7393  -31.6120  -30.2976 C   0  0  0  0  0  0  0  0  0  0  0  0
   41.2989  -32.9698  -31.2569 Cl  0  0  0  0  0  0  0  0  0  0  0  0
   41.4404  -31.2292  -29.1504 C   0  0  0  0  0  0  0  0  0  0  0  0
   40.9967  -30.1467  -28.3848 C   0  0  0  0  0  0  0  0  0  0  0  0
   35.4621  -30.0177  -25.6155 C   0  0  0  0  0  0  0  0  0  0  0  0
   34.4527  -29.7084  -24.7259 C   0  0  0  0  0  0  0  0  0  0  0  0
   33.6143  -30.8025  -24.7239 C   0  0  0  0  0  0  0  0  0  0  0  0
   34.1630  -31.7081  -25.6097 C   0  0  0  0  0  0  0  0  0  0  0  0
   35.2642  -31.2114  -26.1252 O   0  0  0  0  0  0  0  0  0  0  0  0
   40.2706  -27.1059  -24.6833 C   0  0  0  0  0  0  0  0  0  0  0  0
   38.9399  -26.1499  -25.4743 S   0  0  0  0  0  0  0  0  0  0  0  0
 20 21  1  0  0  0
 21  1  1  0  0  0
  1  2  2  0  0  0
  2  3  1  0  0  0
  3 15  1  0  0  0
 15 16  2  0  0  0
 16 17  1  0  0  0
 17 18  2  0  0  0
 18 19  1  0  0  0
  3  4  2  0  0  0
  4  5  1  0  0  0
  5  6  1  0  0  0
  6  7  2  0  0  0
  6  8  1  0  0  0
  8  9  2  0  0  0
  9 10  1  0  0  0
 10 11  2  0  0  0
 11 12  1  0  0  0
 11 13  1  0  0  0
 13 14  2  0  0  0
  5  1  1  0  0  0
 14  8  1  0  0  0
 19 15  1  0  0  0
M  END
>  <minimizedAffinity>
-6.47529

>  <molecular weight>
309.687

$$$$
mol27


 28 32  0  0  0  0  0  0  0  0999 V2000
   40.7840  -22.5723  -23.6183 C   0  0  0  0  0  0  0  0  0  0  0  0
   41.1262  -23.4037  -24.8194 C   0  0  0  0  0  0  0  0  0  0  0  0
   41.9392  -22.9306  -25.6587 O   0  0  0  0  0  0  0  0  0  0  0  0
   40.5555  -24.7122  -25.0334 N   0  0  0  0  0  0  0  0  0  0  0  0
   41.3285  -25.7461  -25.7416 C   0  0  0  0  0  0  0  0  0  0  0  0
   40.4897  -26.3835  -26.8583 C   0  0  0  0  0  0  0  0  0  0  0  0
   39.1043  -26.7228  -26.3760 C   0  0  0  0  0  0  0  0  0  0  0  0
   38.5743  -26.1268  -25.2372 C   0  0  0  0  0  0  0  0  0  0  0  0
   37.0437  -26.7447  -24.9386 S   0  0  0  0  0  0  0  0  0  0  0  0
   37.0292  -27.7913  -26.2620 C   0  0  0  0  0  0  0  0  0  0  0  0
   38.2249  -27.6514  -26.9782 C   0  0  0  0  0  0  0  0  0  0  0  0
   39.2728  -25.0876  -24.4163 C   0  0  0  0  0  0  0  0  0  0  0  0
   38.5311  -28.4250  -28.1995 C   0  0  0  0  0  0  0  0  0  0  0  0
   39.0712  -29.6695  -28.1685 N   0  0  0  0  0  0  0  0  0  0  0  0
   39.2201  -30.1735  -29.4196 C   0  0  0  0  0  0  0  0  0  0  0  0
   39.7481  -31.4338  -29.7046 C   0  0  0  0  0  0  0  0  0  0  0  0
   39.8442  -31.8371  -31.0479 C   0  0  0  0  0  0  0  0  0  0  0  0
   39.4136  -30.9825  -32.0828 C   0  0  0  0  0  0  0  0  0  0  0  0
   38.8825  -29.7176  -31.7834 C   0  0  0  0  0  0  0  0  0  0  0  0
   38.7993  -29.3427  -30.4450 C   0  0  0  0  0  0  0  0  0  0  0  0
   38.2118  -27.9168  -29.7873 S   0  0  0  0  0  0  0  0  0  0  0  0
   35.8988  -28.5745  -26.6792 N   0  0  0  0  0  0  0  0  0  0  0  0
   35.3729  -29.6742  -25.9107 C   0  0  0  0  0  0  0  0  0  0  0  0
   36.0272  -30.1217  -24.9315 O   0  0  0  0  0  0  0  0  0  0  0  0
   35.4606  -28.3290  -27.5917 H   0  0  0  0  0  0  0  0  0  0  0  0
   34.0651  -30.3558  -26.2436 C   0  0  0  0  0  0  0  0  0  0  0  0
   33.9655  -31.8521  -25.9852 C   0  0  0  0  0  0  0  0  0  0  0  0
   33.2500  -30.8692  -25.0661 C   0  0  0  0  0  0  0  0  0  0  0  0
  1  2  1  0  0  0
  2  3  2  0  0  0
  2  4  1  0  0  0
  4  5  1  0  0  0
  5  6  1  0  0  0
  6  7  1  0  0  0
  7  8  2  0  0  0
  8  9  1  0  0  0
  9 10  1  0  0  0
 10 22  1  0  0  0
 22 23  1  0  0  0
 23 24  2  0  0  0
 23 26  1  0  0  0
 26 27  1  0  0  0
 27 28  1  0  0  0
 10 11  2  0  0  0
 11 13  1  0  0  0
 13 14  2  0  0  0
 14 15  1  0  0  0
 15 16  2  0  0  0
 16 17  1  0  0  0
 17 18  2  0  0  0
 18 19  1  0  0  0
 19 20  2  0  0  0
 20 21  1  0  0  0
  8 12  1  0  0  0
 12  4  1  0  0  0
 11  7  1  0  0  0
 21 13  1  0  0  0
 28 26  1  0  0  0
 20 15  1  0  0  0
 22 25  1  0  0  0
M  END
>  <minimizedAffinity>
-6.41211

>  <molecular weight>
379.371

$$$$
mol28


 22 25  0  0  0  0  0  0  0  0999 V2000
   41.9425  -31.1323  -31.9017 C   0  0  0  0  0  0  0  0  0  0  0  0
   40.5346  -30.6739  -32.2921 C   0  0  0  0  0  0  0  0  0  0  0  0
   40.8544  -31.0151  -30.8436 C   0  0  0  0  0  0  0  0  0  0  0  0
   40.7824  -29.8535  -29.9769 N   0  0  0  0  0  0  0  0  0  0  0  0
   39.9284  -30.1514  -29.0375 C   0  0  0  0  0  0  0  0  0  0  0  0
   39.3801  -31.4372  -29.1380 O   0  0  0  0  0  0  0  0  0  0  0  0
   39.9458  -32.0146  -30.2564 C   0  0  0  0  0  0  0  0  0  0  0  0
   39.7227  -33.1874  -30.6568 O   0  0  0  0  0  0  0  0  0  0  0  0
   43.0863  -35.1376  -33.0489 C   0  0  0  0  0  0  0  0  0  0  0  0
   43.5594  -34.5774  -31.8467 C   0  0  0  0  0  0  0  0  0  0  0  0
   43.1807  -33.2839  -31.4756 C   0  0  0  0  0  0  0  0  0  0  0  0
   42.3090  -32.5404  -32.2849 C   0  0  0  0  0  0  0  0  0  0  0  0
   41.8610  -33.0878  -33.4962 C   0  0  0  0  0  0  0  0  0  0  0  0
   42.2398  -34.3809  -33.8678 C   0  0  0  0  0  0  0  0  0  0  0  0
   44.7733  -36.8944  -33.6120 C   0  0  0  0  0  0  0  0  0  0  0  0
   43.4350  -36.4311  -33.4649 O   0  0  0  0  0  0  0  0  0  0  0  0
   39.5719  -29.2132  -27.9534 C   0  0  0  0  0  0  0  0  0  0  0  0
   38.2234  -29.0183  -27.6079 C   0  0  0  0  0  0  0  0  0  0  0  0
   37.8773  -28.1319  -26.5831 C   0  0  0  0  0  0  0  0  0  0  0  0
   38.8721  -27.4331  -25.8950 C   0  0  0  0  0  0  0  0  0  0  0  0
   40.2153  -27.6192  -26.2304 C   0  0  0  0  0  0  0  0  0  0  0  0
   40.5668  -28.5044  -27.2545 C   0  0  0  0  0  0  0  0  0  0  0  0
 15 16  1  0  0  0
 16  9  1  0  0  0
  9 10  2  0  0  0
 10 11  1  0  0  0
 11 12  2  0  0  0
 12  1  1  0  0  0
  1  2  1  0  0  0
  2  3  1  0  0  0
  3  4  1  0  0  0
  4  5  2  0  0  0
  5 17  1  0  0  0
 17 18  2  0  0  0
 18 19  1  0  0  0
 19 20  2  0  0  0
 20 21  1  0  0  0
 21 22  2  0  0  0
  5  6  1  0  0  0
  6  7  1  0  0  0
  7  8  2  0  0  0
 12 13  1  0  0  0
 13 14  2  0  0  0
 14  9  1  0  0  0
  3  1  1  0  0  0
 22 17  1  0  0  0
  7  3  1  0  0  0
M  END
>  <minimizedAffinity>
-6.65034

>  <molecular weight>
278.197

$$$$
mol29


 21 23  0  0  0  0  0  0  0  0999 V2000
   41.7637  -30.7572  -29.2557 C   0  0  0  0  0  0  0  0  0  0  0  0
   40.4548  -30.1442  -29.4402 N   0  0  0  0  0  0  0  0  0  0  0  0
   39.8175  -29.9193  -30.6054 C   0  0  0  0  0  0  0  0  0  0  0  0
   38.6001  -29.3340  -30.3232 C   0  0  0  0  0  0  0  0  0  0  0  0
   38.4963  -29.1905  -28.9857 N   0  0  0  0  0  0  0  0  0  0  0  0
   37.3722  -28.6550  -28.2692 C   0  0  0  0  0  0  0  0  0  0  0  0
   36.2498  -28.5843  -28.8406 O   0  0  0  0  0  0  0  0  0  0  0  0
   37.5057  -28.1966  -26.9084 N   0  0  0  0  0  0  0  0  0  0  0  0
   39.6341  -29.7006  -28.4697 C   0  0  0  0  0  0  0  0  0  0  0  0
   38.6757  -27.4526  -26.5031 C   0  0  0  0  0  0  0  0  0  0  0  0
   39.1480  -26.3865  -27.2899 C   0  0  0  0  0  0  0  0  0  0  0  0
   40.2725  -25.6577  -26.8918 C   0  0  0  0  0  0  0  0  0  0  0  0
   40.9357  -25.9847  -25.7066 C   0  0  0  0  0  0  0  0  0  0  0  0
   40.4761  -27.0420  -24.9176 C   0  0  0  0  0  0  0  0  0  0  0  0
   39.3524  -27.7742  -25.3118 C   0  0  0  0  0  0  0  0  0  0  0  0
   36.4189  -28.4074  -25.9813 C   0  0  0  0  0  0  0  0  0  0  0  0
   35.6656  -27.3200  -25.5012 C   0  0  0  0  0  0  0  0  0  0  0  0
   34.6159  -27.5293  -24.6018 C   0  0  0  0  0  0  0  0  0  0  0  0
   34.3073  -28.8229  -24.1738 C   0  0  0  0  0  0  0  0  0  0  0  0
   35.0477  -29.9099  -24.6450 C   0  0  0  0  0  0  0  0  0  0  0  0
   36.0982  -29.7056  -25.5448 C   0  0  0  0  0  0  0  0  0  0  0  0
  1  2  1  0  0  0
  2  3  1  0  0  0
  3  4  2  0  0  0
  4  5  1  0  0  0
  5  6  1  0  0  0
  6  7  2  0  0  0
  6  8  1  0  0  0
  8 10  1  0  0  0
 10 11  2  0  0  0
 11 12  1  0  0  0
 12 13  2  0  0  0
 13 14  1  0  0  0
 14 15  2  0  0  0
  8 16  1  0  0  0
 16 17  2  0  0  0
 17 18  1  0  0  0
 18 19  2  0  0  0
 19 20  1  0  0  0
 20 21  2  0  0  0
  5  9  1  0  0  0
  9  2  2  0  0  0
 15 10  1  0  0  0
 21 16  1  0  0  0
M  CHG 1   2   1
M  END
>  <minimizedAffinity>
-5.72204

>  <molecular weight>
262.201

$$$$
